/*--------------------------------*- C++ -*----------------------------------*\
  =========                 |
  \\      /  F ield         | OpenFOAM: The Open Source CFD Toolbox
   \\    /   O peration     | Website:  https://openfoam.org
    \\  /    A nd           | Version:  12
     \\/     M anipulation  |
\*---------------------------------------------------------------------------*/
FoamFile
{
    format      ascii;
    class       polyBoundaryMesh;
    location    "constant/fluid/polyMesh";
    object      boundary;
}
// * * * * * * * * * * * * * * * * * * * * * * * * * * * * * * * * * * * * * //

11
(
    inlet
    {
        type            patch;
        nFaces          0;
        startFace       53318;
    }
    outlet
    {
        type            patch;
        nFaces          0;
        startFace       53318;
    }
    walls
    {
        type            wall;
        inGroups        List<word> 1(wall);
        nFaces          2579;
        startFace       53318;
    }
    procBoundary13to0
    {
        type            processor;
        inGroups        List<word> 1(processor);
        nFaces          77;
        startFace       55897;
        matchTolerance  0.0001;
        myProcNo        13;
        neighbProcNo    0;
    }
    procBoundary13to1
    {
        type            processor;
        inGroups        List<word> 1(processor);
        nFaces          35;
        startFace       55974;
        matchTolerance  0.0001;
        myProcNo        13;
        neighbProcNo    1;
    }
    procBoundary13to2
    {
        type            processor;
        inGroups        List<word> 1(processor);
        nFaces          168;
        startFace       56009;
        matchTolerance  0.0001;
        myProcNo        13;
        neighbProcNo    2;
    }
    procBoundary13to3
    {
        type            processor;
        inGroups        List<word> 1(processor);
        nFaces          38;
        startFace       56177;
        matchTolerance  0.0001;
        myProcNo        13;
        neighbProcNo    3;
    }
    procBoundary13to10
    {
        type            processor;
        inGroups        List<word> 1(processor);
        nFaces          571;
        startFace       56215;
        matchTolerance  0.0001;
        myProcNo        13;
        neighbProcNo    10;
    }
    procBoundary13to11
    {
        type            processor;
        inGroups        List<word> 1(processor);
        nFaces          698;
        startFace       56786;
        matchTolerance  0.0001;
        myProcNo        13;
        neighbProcNo    11;
    }
    procBoundary13to12
    {
        type            processor;
        inGroups        List<word> 1(processor);
        nFaces          182;
        startFace       57484;
        matchTolerance  0.0001;
        myProcNo        13;
        neighbProcNo    12;
    }
    procBoundary13to14
    {
        type            processor;
        inGroups        List<word> 1(processor);
        nFaces          1214;
        startFace       57666;
        matchTolerance  0.0001;
        myProcNo        13;
        neighbProcNo    14;
    }
)

// ************************************************************************* //
