/*--------------------------------*- C++ -*----------------------------------*\
  =========                 |
  \\      /  F ield         | OpenFOAM: The Open Source CFD Toolbox
   \\    /   O peration     | Website:  https://openfoam.org
    \\  /    A nd           | Version:  12
     \\/     M anipulation  |
\*---------------------------------------------------------------------------*/
FoamFile
{
    format      ascii;
    class       polyBoundaryMesh;
    location    "constant/fluid/polyMesh";
    object      boundary;
}
// * * * * * * * * * * * * * * * * * * * * * * * * * * * * * * * * * * * * * //

6
(
    inlet
    {
        type            patch;
        nFaces          0;
        startFace       54616;
    }
    outlet
    {
        type            patch;
        nFaces          0;
        startFace       54616;
    }
    walls
    {
        type            wall;
        inGroups        List<word> 1(wall);
        nFaces          1822;
        startFace       54616;
    }
    procBoundary15to9
    {
        type            processor;
        inGroups        List<word> 1(processor);
        nFaces          814;
        startFace       56438;
        matchTolerance  0.0001;
        myProcNo        15;
        neighbProcNo    9;
    }
    procBoundary15to10
    {
        type            processor;
        inGroups        List<word> 1(processor);
        nFaces          22;
        startFace       57252;
        matchTolerance  0.0001;
        myProcNo        15;
        neighbProcNo    10;
    }
    procBoundary15to14
    {
        type            processor;
        inGroups        List<word> 1(processor);
        nFaces          1390;
        startFace       57274;
        matchTolerance  0.0001;
        myProcNo        15;
        neighbProcNo    14;
    }
)

// ************************************************************************* //
