/*--------------------------------*- C++ -*----------------------------------*\
  =========                 |
  \\      /  F ield         | OpenFOAM: The Open Source CFD Toolbox
   \\    /   O peration     | Website:  https://openfoam.org
    \\  /    A nd           | Version:  12
     \\/     M anipulation  |
\*---------------------------------------------------------------------------*/
FoamFile
{
    format      ascii;
    class       polyBoundaryMesh;
    location    "constant/SCR1/polyMesh";
    object      boundary;
}
// * * * * * * * * * * * * * * * * * * * * * * * * * * * * * * * * * * * * * //

6
(
    walls
    {
        type            wall;
        inGroups        List<word> 1(wall);
        nFaces          249;
        startFace       4139;
    }
    procBoundary5to0
    {
        type            processor;
        inGroups        List<word> 1(processor);
        nFaces          156;
        startFace       4388;
        matchTolerance  0.0001;
        myProcNo        5;
        neighbProcNo    0;
    }
    procBoundary5to4
    {
        type            processor;
        inGroups        List<word> 1(processor);
        nFaces          169;
        startFace       4544;
        matchTolerance  0.0001;
        myProcNo        5;
        neighbProcNo    4;
    }
    procBoundary5to6
    {
        type            processor;
        inGroups        List<word> 1(processor);
        nFaces          116;
        startFace       4713;
        matchTolerance  0.0001;
        myProcNo        5;
        neighbProcNo    6;
    }
    procBoundary5to14
    {
        type            processor;
        inGroups        List<word> 1(processor);
        nFaces          17;
        startFace       4829;
        matchTolerance  0.0001;
        myProcNo        5;
        neighbProcNo    14;
    }
    procBoundary5to15
    {
        type            processor;
        inGroups        List<word> 1(processor);
        nFaces          123;
        startFace       4846;
        matchTolerance  0.0001;
        myProcNo        5;
        neighbProcNo    15;
    }
)

// ************************************************************************* //
