/*--------------------------------*- C++ -*----------------------------------*\
| =========                 |                                                 |
| \\      /  F ield         | OpenFOAM: The Open Source CFD Toolbox           |
|  \\    /   O peration     | Website:  www.openfoam.org                      |
|   \\  /    A nd           | Version:  12                                    |
|    \\/     M anipulation  |                                                 |
\*---------------------------------------------------------------------------*/
FoamFile
{
    version     2.0;
    format      binary;
    class       volVectorField;
    location    "0";
    object      U;
}
// * * * * * * * * * * * * * * * * * * * * * * * * * * * * * * * * * * * * * //

dimensions      [0 1 -1 0 0 0 0];

internalField   uniform (0 0 0);

boundaryField
{
    #includeEtc         "caseDicts/setConstraintTypes"

    inlet
    {
        type            fixedValue;
        value           uniform (8 0 0);
    }
    outlet
    {
        type            inletOutlet;
        inletValue      uniform (0 0 0);
        value           uniform (0 0 0);
    }
    front
    {
        type            empty;
    }
    back
    {
        type            empty;
    }
    bottom
    {
        type            fixedValue;
        value           uniform (8 0 0);
    }
    top
    {
        type            fixedValue;
        value           uniform (8 0 0);
    }
    VAWT
    {
        type            movingWallVelocity;
        value           uniform (0 0 0);
    }
    AMI
    {
        type            zeroGradient;
    }
    AMI_slave
    {
        type            zeroGradient;
    }
}


// ************************************************************************* //
