/*--------------------------------*- C++ -*----------------------------------*\
  =========                 |
  \\      /  F ield         | OpenFOAM: The Open Source CFD Toolbox
   \\    /   O peration     | Website:  https://openfoam.org
    \\  /    A nd           | Version:  12
     \\/     M anipulation  |
\*---------------------------------------------------------------------------*/
FoamFile
{
    format      ascii;
    class       polyBoundaryMesh;
    location    "constant/fluid/polyMesh";
    object      boundary;
}
// * * * * * * * * * * * * * * * * * * * * * * * * * * * * * * * * * * * * * //

8
(
    inlet
    {
        type            patch;
        nFaces          0;
        startFace       55338;
    }
    outlet
    {
        type            patch;
        nFaces          0;
        startFace       55338;
    }
    walls
    {
        type            wall;
        inGroups        List<word> 1(wall);
        nFaces          1485;
        startFace       55338;
    }
    procBoundary9to8
    {
        type            processor;
        inGroups        List<word> 1(processor);
        nFaces          926;
        startFace       56823;
        matchTolerance  0.0001;
        myProcNo        9;
        neighbProcNo    8;
    }
    procBoundary9to10
    {
        type            processor;
        inGroups        List<word> 1(processor);
        nFaces          459;
        startFace       57749;
        matchTolerance  0.0001;
        myProcNo        9;
        neighbProcNo    10;
    }
    procBoundary9to11
    {
        type            processor;
        inGroups        List<word> 1(processor);
        nFaces          529;
        startFace       58208;
        matchTolerance  0.0001;
        myProcNo        9;
        neighbProcNo    11;
    }
    procBoundary9to14
    {
        type            processor;
        inGroups        List<word> 1(processor);
        nFaces          33;
        startFace       58737;
        matchTolerance  0.0001;
        myProcNo        9;
        neighbProcNo    14;
    }
    procBoundary9to15
    {
        type            processor;
        inGroups        List<word> 1(processor);
        nFaces          814;
        startFace       58770;
        matchTolerance  0.0001;
        myProcNo        9;
        neighbProcNo    15;
    }
)

// ************************************************************************* //
