/*--------------------------------*- C++ -*----------------------------------*\
  =========                 |
  \\      /  F ield         | OpenFOAM: The Open Source CFD Toolbox
   \\    /   O peration     | Website:  https://openfoam.org
    \\  /    A nd           | Version:  12
     \\/     M anipulation  |
\*---------------------------------------------------------------------------*/
FoamFile
{
    format      ascii;
    class       polyBoundaryMesh;
    location    "constant/SCR1/polyMesh";
    object      boundary;
}
// * * * * * * * * * * * * * * * * * * * * * * * * * * * * * * * * * * * * * //

4
(
    walls
    {
        type            wall;
        inGroups        List<word> 1(wall);
        nFaces          404;
        startFace       4138;
    }
    procBoundary4to5
    {
        type            processor;
        inGroups        List<word> 1(processor);
        nFaces          169;
        startFace       4542;
        matchTolerance  0.0001;
        myProcNo        4;
        neighbProcNo    5;
    }
    procBoundary4to6
    {
        type            processor;
        inGroups        List<word> 1(processor);
        nFaces          115;
        startFace       4711;
        matchTolerance  0.0001;
        myProcNo        4;
        neighbProcNo    6;
    }
    procBoundary4to14
    {
        type            processor;
        inGroups        List<word> 1(processor);
        nFaces          120;
        startFace       4826;
        matchTolerance  0.0001;
        myProcNo        4;
        neighbProcNo    14;
    }
)

// ************************************************************************* //
