/*--------------------------------*- C++ -*----------------------------------*\
  =========                 |
  \\      /  F ield         | OpenFOAM: The Open Source CFD Toolbox
   \\    /   O peration     | Website:  https://openfoam.org
    \\  /    A nd           | Version:  12
     \\/     M anipulation  |
\*---------------------------------------------------------------------------*/
FoamFile
{
    format      ascii;
    class       polyBoundaryMesh;
    location    "constant/SCR1/polyMesh";
    object      boundary;
}
// * * * * * * * * * * * * * * * * * * * * * * * * * * * * * * * * * * * * * //

5
(
    walls
    {
        type            wall;
        inGroups        List<word> 1(wall);
        nFaces          334;
        startFace       4033;
    }
    procBoundary13to10
    {
        type            processor;
        inGroups        List<word> 1(processor);
        nFaces          92;
        startFace       4367;
        matchTolerance  0.0001;
        myProcNo        13;
        neighbProcNo    10;
    }
    procBoundary13to12
    {
        type            processor;
        inGroups        List<word> 1(processor);
        nFaces          196;
        startFace       4459;
        matchTolerance  0.0001;
        myProcNo        13;
        neighbProcNo    12;
    }
    procBoundary13to14
    {
        type            processor;
        inGroups        List<word> 1(processor);
        nFaces          108;
        startFace       4655;
        matchTolerance  0.0001;
        myProcNo        13;
        neighbProcNo    14;
    }
    procBoundary13to15
    {
        type            processor;
        inGroups        List<word> 1(processor);
        nFaces          120;
        startFace       4763;
        matchTolerance  0.0001;
        myProcNo        13;
        neighbProcNo    15;
    }
)

// ************************************************************************* //
