/*--------------------------------*- C++ -*----------------------------------*\
  =========                 |
  \\      /  F ield         | OpenFOAM: The Open Source CFD Toolbox
   \\    /   O peration     | Website:  https://openfoam.org
    \\  /    A nd           | Version:  12
     \\/     M anipulation  |
\*---------------------------------------------------------------------------*/
FoamFile
{
    format      ascii;
    class       polyBoundaryMesh;
    location    "constant/fluid/polyMesh";
    object      boundary;
}
// * * * * * * * * * * * * * * * * * * * * * * * * * * * * * * * * * * * * * //

11
(
    inlet
    {
        type            patch;
        nFaces          0;
        startFace       55286;
    }
    outlet
    {
        type            patch;
        nFaces          0;
        startFace       55286;
    }
    walls
    {
        type            wall;
        inGroups        List<word> 1(wall);
        nFaces          1008;
        startFace       55286;
    }
    procBoundary11to0
    {
        type            processor;
        inGroups        List<word> 1(processor);
        nFaces          343;
        startFace       56294;
        matchTolerance  0.0001;
        myProcNo        11;
        neighbProcNo    0;
    }
    procBoundary11to5
    {
        type            processor;
        inGroups        List<word> 1(processor);
        nFaces          90;
        startFace       56637;
        matchTolerance  0.0001;
        myProcNo        11;
        neighbProcNo    5;
    }
    procBoundary11to8
    {
        type            processor;
        inGroups        List<word> 1(processor);
        nFaces          360;
        startFace       56727;
        matchTolerance  0.0001;
        myProcNo        11;
        neighbProcNo    8;
    }
    procBoundary11to9
    {
        type            processor;
        inGroups        List<word> 1(processor);
        nFaces          529;
        startFace       57087;
        matchTolerance  0.0001;
        myProcNo        11;
        neighbProcNo    9;
    }
    procBoundary11to10
    {
        type            processor;
        inGroups        List<word> 1(processor);
        nFaces          1052;
        startFace       57616;
        matchTolerance  0.0001;
        myProcNo        11;
        neighbProcNo    10;
    }
    procBoundary11to12
    {
        type            processor;
        inGroups        List<word> 1(processor);
        nFaces          130;
        startFace       58668;
        matchTolerance  0.0001;
        myProcNo        11;
        neighbProcNo    12;
    }
    procBoundary11to13
    {
        type            processor;
        inGroups        List<word> 1(processor);
        nFaces          698;
        startFace       58798;
        matchTolerance  0.0001;
        myProcNo        11;
        neighbProcNo    13;
    }
    procBoundary11to14
    {
        type            processor;
        inGroups        List<word> 1(processor);
        nFaces          263;
        startFace       59496;
        matchTolerance  0.0001;
        myProcNo        11;
        neighbProcNo    14;
    }
)

// ************************************************************************* //
