/*--------------------------------*- C++ -*----------------------------------*\
  =========                 |
  \\      /  F ield         | OpenFOAM: The Open Source CFD Toolbox
   \\    /   O peration     | Website:  https://openfoam.org
    \\  /    A nd           | Version:  12
     \\/     M anipulation  |
\*---------------------------------------------------------------------------*/
FoamFile
{
    format      ascii;
    class       polyBoundaryMesh;
    location    "constant/SCR1/polyMesh";
    object      boundary;
}
// * * * * * * * * * * * * * * * * * * * * * * * * * * * * * * * * * * * * * //

5
(
    walls
    {
        type            wall;
        inGroups        List<word> 1(wall);
        nFaces          339;
        startFace       4093;
    }
    procBoundary10to8
    {
        type            processor;
        inGroups        List<word> 1(processor);
        nFaces          84;
        startFace       4432;
        matchTolerance  0.0001;
        myProcNo        10;
        neighbProcNo    8;
    }
    procBoundary10to11
    {
        type            processor;
        inGroups        List<word> 1(processor);
        nFaces          192;
        startFace       4516;
        matchTolerance  0.0001;
        myProcNo        10;
        neighbProcNo    11;
    }
    procBoundary10to12
    {
        type            processor;
        inGroups        List<word> 1(processor);
        nFaces          143;
        startFace       4708;
        matchTolerance  0.0001;
        myProcNo        10;
        neighbProcNo    12;
    }
    procBoundary10to13
    {
        type            processor;
        inGroups        List<word> 1(processor);
        nFaces          92;
        startFace       4851;
        matchTolerance  0.0001;
        myProcNo        10;
        neighbProcNo    13;
    }
)

// ************************************************************************* //
