/*--------------------------------*- C++ -*----------------------------------*\
| =========                 |                                                 |
| \\      /  F ield         | OpenFOAM: The Open Source CFD Toolbox           |
|  \\    /   O peration     | Website:  www.openfoam.org                      |
|   \\  /    A nd           | Version:  12                                    |
|    \\/     M anipulation  |                                                 |
\*---------------------------------------------------------------------------*/
FoamFile
{
    version     2.0;
    format      ascii;
    class       dictionary;
    location    "system";
    object      fvSolution;
}
// * * * * * * * * * * * * * * * * * * * * * * * * * * * * * * * * * * * * * //

PIMPLE
{
    // Amount of outer-correctors over the whole explicit coupled system
    // Loop around all regions once. If larger number, converge explicit terms
    nOuterCorrectors    20;
}


// ************************************************************************* //
