/*--------------------------------*- C++ -*----------------------------------*\
  =========                 |
  \\      /  F ield         | OpenFOAM: The Open Source CFD Toolbox
   \\    /   O peration     | Website:  https://openfoam.org
    \\  /    A nd           | Version:  12
     \\/     M anipulation  |
\*---------------------------------------------------------------------------*/
FoamFile
{
    format      ascii;
    class       polyBoundaryMesh;
    location    "constant/SCR1/polyMesh";
    object      boundary;
}
// * * * * * * * * * * * * * * * * * * * * * * * * * * * * * * * * * * * * * //

3
(
    walls
    {
        type            wall;
        inGroups        List<word> 1(wall);
        nFaces          461;
        startFace       4028;
    }
    procBoundary12to10
    {
        type            processor;
        inGroups        List<word> 1(processor);
        nFaces          143;
        startFace       4489;
        matchTolerance  0.0001;
        myProcNo        12;
        neighbProcNo    10;
    }
    procBoundary12to13
    {
        type            processor;
        inGroups        List<word> 1(processor);
        nFaces          196;
        startFace       4632;
        matchTolerance  0.0001;
        myProcNo        12;
        neighbProcNo    13;
    }
)

// ************************************************************************* //
