/*--------------------------------*- C++ -*----------------------------------*\
  =========                 |
  \\      /  F ield         | OpenFOAM: The Open Source CFD Toolbox
   \\    /   O peration     | Website:  https://openfoam.org
    \\  /    A nd           | Version:  12
     \\/     M anipulation  |
\*---------------------------------------------------------------------------*/
FoamFile
{
    format      ascii;
    class       polyBoundaryMesh;
    location    "constant/SCR2/polyMesh";
    object      boundary;
}
// * * * * * * * * * * * * * * * * * * * * * * * * * * * * * * * * * * * * * //

7
(
    walls
    {
        type            wall;
        inGroups        List<word> 1(wall);
        nFaces          149;
        startFace       4025;
    }
    SCR2_to_region1
    {
        type            mappedWall;
        inGroups        List<word> 
2
(
wall
mapped
)
;
        nFaces          121;
        startFace       4174;
        neighbourRegion region1;
        neighbourPatch  region1_to_SCR2;
        transformType   none;
    }
    SCR2_to_region2
    {
        type            mappedWall;
        inGroups        List<word> 
2
(
wall
mapped
)
;
        nFaces          148;
        startFace       4295;
        neighbourRegion region2;
        neighbourPatch  region2_to_SCR2;
        transformType   none;
    }
    procBoundary11to0
    {
        type            processor;
        inGroups        List<word> 1(processor);
        nFaces          36;
        startFace       4443;
        matchTolerance  0.0001;
        myProcNo        11;
        neighbProcNo    0;
    }
    procBoundary11to1
    {
        type            processor;
        inGroups        List<word> 1(processor);
        nFaces          137;
        startFace       4479;
        matchTolerance  0.0001;
        myProcNo        11;
        neighbProcNo    1;
    }
    procBoundary11to8
    {
        type            processor;
        inGroups        List<word> 1(processor);
        nFaces          105;
        startFace       4616;
        matchTolerance  0.0001;
        myProcNo        11;
        neighbProcNo    8;
    }
    procBoundary11to10
    {
        type            processor;
        inGroups        List<word> 1(processor);
        nFaces          344;
        startFace       4721;
        matchTolerance  0.0001;
        myProcNo        11;
        neighbProcNo    10;
    }
)

// ************************************************************************* //
