/*--------------------------------*- C++ -*----------------------------------*\
  =========                 |
  \\      /  F ield         | OpenFOAM: The Open Source CFD Toolbox
   \\    /   O peration     | Website:  https://openfoam.org
    \\  /    A nd           | Version:  12
     \\/     M anipulation  |
\*---------------------------------------------------------------------------*/
FoamFile
{
    format      ascii;
    class       polyBoundaryMesh;
    location    "constant/SCR2/polyMesh";
    object      boundary;
}
// * * * * * * * * * * * * * * * * * * * * * * * * * * * * * * * * * * * * * //

6
(
    walls
    {
        type            wall;
        inGroups        List<word> 1(wall);
        nFaces          196;
        startFace       4065;
    }
    SCR2_to_region1
    {
        type            mappedWall;
        inGroups        List<word> 
2
(
wall
mapped
)
;
        nFaces          123;
        startFace       4261;
        neighbourRegion region1;
        neighbourPatch  region1_to_SCR2;
        transformType   none;
    }
    SCR2_to_region2
    {
        type            mappedWall;
        inGroups        List<word> 
2
(
wall
mapped
)
;
        nFaces          127;
        startFace       4384;
        neighbourRegion region2;
        neighbourPatch  region2_to_SCR2;
        transformType   none;
    }
    procBoundary15to12
    {
        type            processor;
        inGroups        List<word> 1(processor);
        nFaces          36;
        startFace       4511;
        matchTolerance  0.0001;
        myProcNo        15;
        neighbProcNo    12;
    }
    procBoundary15to13
    {
        type            processor;
        inGroups        List<word> 1(processor);
        nFaces          108;
        startFace       4547;
        matchTolerance  0.0001;
        myProcNo        15;
        neighbProcNo    13;
    }
    procBoundary15to14
    {
        type            processor;
        inGroups        List<word> 1(processor);
        nFaces          200;
        startFace       4655;
        matchTolerance  0.0001;
        myProcNo        15;
        neighbProcNo    14;
    }
)

// ************************************************************************* //
