/*--------------------------------*- C++ -*----------------------------------*\
  =========                 |
  \\      /  F ield         | OpenFOAM: The Open Source CFD Toolbox
   \\    /   O peration     | Website:  https://openfoam.org
    \\  /    A nd           | Version:  12
     \\/     M anipulation  |
\*---------------------------------------------------------------------------*/
FoamFile
{
    format      ascii;
    class       polyBoundaryMesh;
    location    "constant/SCR1/polyMesh";
    object      boundary;
}
// * * * * * * * * * * * * * * * * * * * * * * * * * * * * * * * * * * * * * //

9
(
    walls
    {
        type            wall;
        inGroups        List<word> 1(wall);
        nFaces          253;
        startFace       4067;
    }
    procBoundary0to1
    {
        type            processor;
        inGroups        List<word> 1(processor);
        nFaces          147;
        startFace       4320;
        matchTolerance  0.0001;
        myProcNo        0;
        neighbProcNo    1;
    }
    procBoundary0to2
    {
        type            processor;
        inGroups        List<word> 1(processor);
        nFaces          84;
        startFace       4467;
        matchTolerance  0.0001;
        myProcNo        0;
        neighbProcNo    2;
    }
    procBoundary0to3
    {
        type            processor;
        inGroups        List<word> 1(processor);
        nFaces          36;
        startFace       4551;
        matchTolerance  0.0001;
        myProcNo        0;
        neighbProcNo    3;
    }
    procBoundary0to5
    {
        type            processor;
        inGroups        List<word> 1(processor);
        nFaces          156;
        startFace       4587;
        matchTolerance  0.0001;
        myProcNo        0;
        neighbProcNo    5;
    }
    procBoundary0to6
    {
        type            processor;
        inGroups        List<word> 1(processor);
        nFaces          4;
        startFace       4743;
        matchTolerance  0.0001;
        myProcNo        0;
        neighbProcNo    6;
    }
    procBoundary0to8
    {
        type            processor;
        inGroups        List<word> 1(processor);
        nFaces          120;
        startFace       4747;
        matchTolerance  0.0001;
        myProcNo        0;
        neighbProcNo    8;
    }
    procBoundary0to9
    {
        type            processor;
        inGroups        List<word> 1(processor);
        nFaces          2;
        startFace       4867;
        matchTolerance  0.0001;
        myProcNo        0;
        neighbProcNo    9;
    }
    procBoundary0to15
    {
        type            processor;
        inGroups        List<word> 1(processor);
        nFaces          4;
        startFace       4869;
        matchTolerance  0.0001;
        myProcNo        0;
        neighbProcNo    15;
    }
)

// ************************************************************************* //
