/*--------------------------------*- C++ -*----------------------------------*\
  =========                 |
  \\      /  F ield         | OpenFOAM: The Open Source CFD Toolbox
   \\    /   O peration     | Website:  https://openfoam.org
    \\  /    A nd           | Version:  12
     \\/     M anipulation  |
\*---------------------------------------------------------------------------*/
FoamFile
{
    format      ascii;
    class       polyBoundaryMesh;
    location    "constant/SCR1/polyMesh";
    object      boundary;
}
// * * * * * * * * * * * * * * * * * * * * * * * * * * * * * * * * * * * * * //

6
(
    walls
    {
        type            wall;
        inGroups        List<word> 1(wall);
        nFaces          252;
        startFace       4151;
    }
    procBoundary8to0
    {
        type            processor;
        inGroups        List<word> 1(processor);
        nFaces          120;
        startFace       4403;
        matchTolerance  0.0001;
        myProcNo        8;
        neighbProcNo    0;
    }
    procBoundary8to9
    {
        type            processor;
        inGroups        List<word> 1(processor);
        nFaces          149;
        startFace       4523;
        matchTolerance  0.0001;
        myProcNo        8;
        neighbProcNo    9;
    }
    procBoundary8to10
    {
        type            processor;
        inGroups        List<word> 1(processor);
        nFaces          84;
        startFace       4672;
        matchTolerance  0.0001;
        myProcNo        8;
        neighbProcNo    10;
    }
    procBoundary8to11
    {
        type            processor;
        inGroups        List<word> 1(processor);
        nFaces          45;
        startFace       4756;
        matchTolerance  0.0001;
        myProcNo        8;
        neighbProcNo    11;
    }
    procBoundary8to15
    {
        type            processor;
        inGroups        List<word> 1(processor);
        nFaces          156;
        startFace       4801;
        matchTolerance  0.0001;
        myProcNo        8;
        neighbProcNo    15;
    }
)

// ************************************************************************* //
