/*--------------------------------*- C++ -*----------------------------------*\
  =========                 |
  \\      /  F ield         | OpenFOAM: The Open Source CFD Toolbox
   \\    /   O peration     | Website:  https://openfoam.org
    \\  /    A nd           | Version:  12
     \\/     M anipulation  |
\*---------------------------------------------------------------------------*/
FoamFile
{
    format      ascii;
    class       polyBoundaryMesh;
    location    "constant/SCR2/polyMesh";
    object      boundary;
}
// * * * * * * * * * * * * * * * * * * * * * * * * * * * * * * * * * * * * * //

7
(
    walls
    {
        type            wall;
        inGroups        List<word> 1(wall);
        nFaces          103;
        startFace       4019;
    }
    SCR2_to_region1
    {
        type            mappedWall;
        inGroups        List<word> 
2
(
wall
mapped
)
;
        nFaces          128;
        startFace       4122;
        neighbourRegion region1;
        neighbourPatch  region1_to_SCR2;
        transformType   none;
    }
    SCR2_to_region2
    {
        type            mappedWall;
        inGroups        List<word> 
2
(
wall
mapped
)
;
        nFaces          119;
        startFace       4250;
        neighbourRegion region2;
        neighbourPatch  region2_to_SCR2;
        transformType   none;
    }
    procBoundary8to9
    {
        type            processor;
        inGroups        List<word> 1(processor);
        nFaces          193;
        startFace       4369;
        matchTolerance  0.0001;
        myProcNo        8;
        neighbProcNo    9;
    }
    procBoundary8to10
    {
        type            processor;
        inGroups        List<word> 1(processor);
        nFaces          152;
        startFace       4562;
        matchTolerance  0.0001;
        myProcNo        8;
        neighbProcNo    10;
    }
    procBoundary8to11
    {
        type            processor;
        inGroups        List<word> 1(processor);
        nFaces          105;
        startFace       4714;
        matchTolerance  0.0001;
        myProcNo        8;
        neighbProcNo    11;
    }
    procBoundary8to14
    {
        type            processor;
        inGroups        List<word> 1(processor);
        nFaces          72;
        startFace       4819;
        matchTolerance  0.0001;
        myProcNo        8;
        neighbProcNo    14;
    }
)

// ************************************************************************* //
