/*--------------------------------*- C++ -*----------------------------------*\
  =========                 |
  \\      /  F ield         | OpenFOAM: The Open Source CFD Toolbox
   \\    /   O peration     | Website:  https://openfoam.org
    \\  /    A nd           | Version:  12
     \\/     M anipulation  |
\*---------------------------------------------------------------------------*/
FoamFile
{
    format      ascii;
    class       polyBoundaryMesh;
    location    "constant/SCR2/polyMesh";
    object      boundary;
}
// * * * * * * * * * * * * * * * * * * * * * * * * * * * * * * * * * * * * * //

7
(
    walls
    {
        type            wall;
        inGroups        List<word> 1(wall);
        nFaces          144;
        startFace       4099;
    }
    SCR2_to_region1
    {
        type            mappedWall;
        inGroups        List<word> 
2
(
wall
mapped
)
;
        nFaces          125;
        startFace       4243;
        neighbourRegion region1;
        neighbourPatch  region1_to_SCR2;
        transformType   none;
    }
    SCR2_to_region2
    {
        type            mappedWall;
        inGroups        List<word> 
2
(
wall
mapped
)
;
        nFaces          125;
        startFace       4368;
        neighbourRegion region2;
        neighbourPatch  region2_to_SCR2;
        transformType   none;
    }
    procBoundary13to4
    {
        type            processor;
        inGroups        List<word> 1(processor);
        nFaces          126;
        startFace       4493;
        matchTolerance  0.0001;
        myProcNo        13;
        neighbProcNo    4;
    }
    procBoundary13to5
    {
        type            processor;
        inGroups        List<word> 1(processor);
        nFaces          6;
        startFace       4619;
        matchTolerance  0.0001;
        myProcNo        13;
        neighbProcNo    5;
    }
    procBoundary13to12
    {
        type            processor;
        inGroups        List<word> 1(processor);
        nFaces          144;
        startFace       4625;
        matchTolerance  0.0001;
        myProcNo        13;
        neighbProcNo    12;
    }
    procBoundary13to15
    {
        type            processor;
        inGroups        List<word> 1(processor);
        nFaces          108;
        startFace       4769;
        matchTolerance  0.0001;
        myProcNo        13;
        neighbProcNo    15;
    }
)

// ************************************************************************* //
