/*--------------------------------*- C++ -*----------------------------------*\
| =========                 |                                                 |
| \\      /  F ield         | OpenFOAM: The Open Source CFD Toolbox           |
|  \\    /   O peration     | Version:  2412                                  |
|   \\  /    A nd           | Website:  www.openfoam.com                      |
|    \\/     M anipulation  |                                                 |
\*---------------------------------------------------------------------------*/
FoamFile
{
    version     2.0;
    format      ascii;
    arch        "LSB;label=32;scalar=64";
    class       polyBoundaryMesh;
    location    "constant/polyMesh";
    object      boundary;
}
// * * * * * * * * * * * * * * * * * * * * * * * * * * * * * * * * * * * * * //

8
(
    front
    {
        type            symmetryPlane;
        inGroups        1(symmetryPlane);
        nFaces          0;
        startFace       388;
    }
    back
    {
        type            symmetryPlane;
        inGroups        1(symmetryPlane);
        nFaces          40;
        startFace       388;
    }
    inlet
    {
        type            patch;
        nFaces          0;
        startFace       428;
    }
    outlet
    {
        type            patch;
        nFaces          32;
        startFace       428;
    }
    lowerWall
    {
        type            wall;
        inGroups        1(wall);
        nFaces          20;
        startFace       460;
    }
    upperWall
    {
        type            symmetryPlane;
        inGroups        1(symmetryPlane);
        nFaces          20;
        startFace       480;
    }
    procBoundary3to2
    {
        type            processor;
        inGroups        1(processor);
        nFaces          32;
        startFace       500;
        matchTolerance  0.0001;
        transform       unknown;
        myProcNo        3;
        neighbProcNo    2;
    }
    procBoundary3to7
    {
        type            processor;
        inGroups        1(processor);
        nFaces          40;
        startFace       532;
        matchTolerance  0.0001;
        transform       unknown;
        myProcNo        3;
        neighbProcNo    7;
    }
)

// ************************************************************************* //
