/*--------------------------------*- C++ -*----------------------------------*\
  =========                 |
  \\      /  F ield         | OpenFOAM: The Open Source CFD Toolbox
   \\    /   O peration     | Website:  https://openfoam.org
    \\  /    A nd           | Version:  12
     \\/     M anipulation  |
\*---------------------------------------------------------------------------*/
FoamFile
{
    format      ascii;
    class       polyBoundaryMesh;
    location    "constant/SCR2/polyMesh";
    object      boundary;
}
// * * * * * * * * * * * * * * * * * * * * * * * * * * * * * * * * * * * * * //

8
(
    walls
    {
        type            wall;
        inGroups        List<word> 1(wall);
        nFaces          0;
        startFace       4066;
    }
    SCR2_to_region1
    {
        type            mappedWall;
        inGroups        List<word> 
2
(
wall
mapped
)
;
        nFaces          128;
        startFace       4066;
        neighbourRegion region1;
        neighbourPatch  region1_to_SCR2;
        transformType   none;
    }
    SCR2_to_region2
    {
        type            mappedWall;
        inGroups        List<word> 
2
(
wall
mapped
)
;
        nFaces          111;
        startFace       4194;
        neighbourRegion region2;
        neighbourPatch  region2_to_SCR2;
        transformType   none;
    }
    procBoundary10to0
    {
        type            processor;
        inGroups        List<word> 1(processor);
        nFaces          79;
        startFace       4305;
        matchTolerance  0.0001;
        myProcNo        10;
        neighbProcNo    0;
    }
    procBoundary10to8
    {
        type            processor;
        inGroups        List<word> 1(processor);
        nFaces          152;
        startFace       4384;
        matchTolerance  0.0001;
        myProcNo        10;
        neighbProcNo    8;
    }
    procBoundary10to11
    {
        type            processor;
        inGroups        List<word> 1(processor);
        nFaces          344;
        startFace       4536;
        matchTolerance  0.0001;
        myProcNo        10;
        neighbProcNo    11;
    }
    procBoundary10to12
    {
        type            processor;
        inGroups        List<word> 1(processor);
        nFaces          156;
        startFace       4880;
        matchTolerance  0.0001;
        myProcNo        10;
        neighbProcNo    12;
    }
    procBoundary10to14
    {
        type            processor;
        inGroups        List<word> 1(processor);
        nFaces          12;
        startFace       5036;
        matchTolerance  0.0001;
        myProcNo        10;
        neighbProcNo    14;
    }
)

// ************************************************************************* //
