/*--------------------------------*- C++ -*----------------------------------*\
| =========                 |                                                 |
| \\      /  F ield         | OpenFOAM: The Open Source CFD Toolbox           |
|  \\    /   O peration     | Version:  2412                                  |
|   \\  /    A nd           | Website:  www.openfoam.com                      |
|    \\/     M anipulation  |                                                 |
\*---------------------------------------------------------------------------*/
FoamFile
{
    version     2.0;
    format      binary;
    arch        "LSB;label=32;scalar=64";
    class       polyBoundaryMesh;
    location    "constant/polyMesh";
    object      boundary;
}
// * * * * * * * * * * * * * * * * * * * * * * * * * * * * * * * * * * * * * //

7
(
    frontAndBack
    {
        type            patch;
        nFaces          51;
        startFace       522;
    }
    inlet
    {
        type            patch;
        nFaces          0;
        startFace       573;
    }
    outlet
    {
        type            patch;
        nFaces          36;
        startFace       573;
    }
    lowerWall
    {
        type            wall;
        inGroups        1(wall);
        nFaces          27;
        startFace       609;
    }
    upperWall
    {
        type            patch;
        nFaces          28;
        startFace       636;
    }
    procBoundary2to1
    {
        type            processor;
        inGroups        1(processor);
        nFaces          38;
        startFace       664;
        matchTolerance  0.0001;
        transform       unknown;
        myProcNo        2;
        neighbProcNo    1;
    }
    procBoundary2to5
    {
        type            processor;
        inGroups        1(processor);
        nFaces          60;
        startFace       702;
        matchTolerance  0.0001;
        transform       unknown;
        myProcNo        2;
        neighbProcNo    5;
    }
)

// ************************************************************************* //
