/*--------------------------------*- C++ -*----------------------------------*\
  =========                 |
  \\      /  F ield         | OpenFOAM: The Open Source CFD Toolbox
   \\    /   O peration     | Website:  https://openfoam.org
    \\  /    A nd           | Version:  12
     \\/     M anipulation  |
\*---------------------------------------------------------------------------*/
FoamFile
{
    format      ascii;
    class       polyBoundaryMesh;
    location    "constant/SCR2/polyMesh";
    object      boundary;
}
// * * * * * * * * * * * * * * * * * * * * * * * * * * * * * * * * * * * * * //

10
(
    walls
    {
        type            wall;
        inGroups        List<word> 1(wall);
        nFaces          0;
        startFace       4144;
    }
    SCR2_to_region1
    {
        type            mappedWall;
        inGroups        List<word> 
2
(
wall
mapped
)
;
        nFaces          124;
        startFace       4144;
        neighbourRegion region1;
        neighbourPatch  region1_to_SCR2;
        transformType   none;
    }
    SCR2_to_region2
    {
        type            mappedWall;
        inGroups        List<word> 
2
(
wall
mapped
)
;
        nFaces          128;
        startFace       4268;
        neighbourRegion region2;
        neighbourPatch  region2_to_SCR2;
        transformType   none;
    }
    procBoundary0to1
    {
        type            processor;
        inGroups        List<word> 1(processor);
        nFaces          153;
        startFace       4396;
        matchTolerance  0.0001;
        myProcNo        0;
        neighbProcNo    1;
    }
    procBoundary0to2
    {
        type            processor;
        inGroups        List<word> 1(processor);
        nFaces          120;
        startFace       4549;
        matchTolerance  0.0001;
        myProcNo        0;
        neighbProcNo    2;
    }
    procBoundary0to5
    {
        type            processor;
        inGroups        List<word> 1(processor);
        nFaces          144;
        startFace       4669;
        matchTolerance  0.0001;
        myProcNo        0;
        neighbProcNo    5;
    }
    procBoundary0to6
    {
        type            processor;
        inGroups        List<word> 1(processor);
        nFaces          12;
        startFace       4813;
        matchTolerance  0.0001;
        myProcNo        0;
        neighbProcNo    6;
    }
    procBoundary0to10
    {
        type            processor;
        inGroups        List<word> 1(processor);
        nFaces          79;
        startFace       4825;
        matchTolerance  0.0001;
        myProcNo        0;
        neighbProcNo    10;
    }
    procBoundary0to11
    {
        type            processor;
        inGroups        List<word> 1(processor);
        nFaces          36;
        startFace       4904;
        matchTolerance  0.0001;
        myProcNo        0;
        neighbProcNo    11;
    }
    procBoundary0to12
    {
        type            processor;
        inGroups        List<word> 1(processor);
        nFaces          12;
        startFace       4940;
        matchTolerance  0.0001;
        myProcNo        0;
        neighbProcNo    12;
    }
)

// ************************************************************************* //
