/*--------------------------------*- C++ -*----------------------------------*\
  =========                 |
  \\      /  F ield         | OpenFOAM: The Open Source CFD Toolbox
   \\    /   O peration     | Website:  https://openfoam.org
    \\  /    A nd           | Version:  12
     \\/     M anipulation  |
\*---------------------------------------------------------------------------*/
FoamFile
{
    format      ascii;
    class       polyBoundaryMesh;
    location    "constant/fluid/polyMesh";
    object      boundary;
}
// * * * * * * * * * * * * * * * * * * * * * * * * * * * * * * * * * * * * * //

11
(
    inlet
    {
        type            patch;
        nFaces          0;
        startFace       54931;
    }
    outlet
    {
        type            patch;
        nFaces          0;
        startFace       54931;
    }
    walls
    {
        type            wall;
        inGroups        List<word> 1(wall);
        nFaces          1316;
        startFace       54931;
    }
    procBoundary1to0
    {
        type            processor;
        inGroups        List<word> 1(processor);
        nFaces          1252;
        startFace       56247;
        matchTolerance  0.0001;
        myProcNo        1;
        neighbProcNo    0;
    }
    procBoundary1to2
    {
        type            processor;
        inGroups        List<word> 1(processor);
        nFaces          413;
        startFace       57499;
        matchTolerance  0.0001;
        myProcNo        1;
        neighbProcNo    2;
    }
    procBoundary1to4
    {
        type            processor;
        inGroups        List<word> 1(processor);
        nFaces          711;
        startFace       57912;
        matchTolerance  0.0001;
        myProcNo        1;
        neighbProcNo    4;
    }
    procBoundary1to5
    {
        type            processor;
        inGroups        List<word> 1(processor);
        nFaces          23;
        startFace       58623;
        matchTolerance  0.0001;
        myProcNo        1;
        neighbProcNo    5;
    }
    procBoundary1to7
    {
        type            processor;
        inGroups        List<word> 1(processor);
        nFaces          179;
        startFace       58646;
        matchTolerance  0.0001;
        myProcNo        1;
        neighbProcNo    7;
    }
    procBoundary1to10
    {
        type            processor;
        inGroups        List<word> 1(processor);
        nFaces          393;
        startFace       58825;
        matchTolerance  0.0001;
        myProcNo        1;
        neighbProcNo    10;
    }
    procBoundary1to12
    {
        type            processor;
        inGroups        List<word> 1(processor);
        nFaces          196;
        startFace       59218;
        matchTolerance  0.0001;
        myProcNo        1;
        neighbProcNo    12;
    }
    procBoundary1to13
    {
        type            processor;
        inGroups        List<word> 1(processor);
        nFaces          35;
        startFace       59414;
        matchTolerance  0.0001;
        myProcNo        1;
        neighbProcNo    13;
    }
)

// ************************************************************************* //
