/*--------------------------------*- C++ -*----------------------------------*\
  =========                 |
  \\      /  F ield         | OpenFOAM: The Open Source CFD Toolbox
   \\    /   O peration     | Website:  https://openfoam.org
    \\  /    A nd           | Version:  12
     \\/     M anipulation  |
\*---------------------------------------------------------------------------*/
FoamFile
{
    format      ascii;
    class       polyBoundaryMesh;
    location    "constant/fluid/polyMesh";
    object      boundary;
}
// * * * * * * * * * * * * * * * * * * * * * * * * * * * * * * * * * * * * * //

11
(
    inlet
    {
        type            patch;
        nFaces          0;
        startFace       54692;
    }
    outlet
    {
        type            patch;
        nFaces          0;
        startFace       54692;
    }
    walls
    {
        type            wall;
        inGroups        List<word> 1(wall);
        nFaces          1177;
        startFace       54692;
    }
    procBoundary5to0
    {
        type            processor;
        inGroups        List<word> 1(processor);
        nFaces          861;
        startFace       55869;
        matchTolerance  0.0001;
        myProcNo        5;
        neighbProcNo    0;
    }
    procBoundary5to1
    {
        type            processor;
        inGroups        List<word> 1(processor);
        nFaces          23;
        startFace       56730;
        matchTolerance  0.0001;
        myProcNo        5;
        neighbProcNo    1;
    }
    procBoundary5to4
    {
        type            processor;
        inGroups        List<word> 1(processor);
        nFaces          1116;
        startFace       56753;
        matchTolerance  0.0001;
        myProcNo        5;
        neighbProcNo    4;
    }
    procBoundary5to6
    {
        type            processor;
        inGroups        List<word> 1(processor);
        nFaces          510;
        startFace       57869;
        matchTolerance  0.0001;
        myProcNo        5;
        neighbProcNo    6;
    }
    procBoundary5to7
    {
        type            processor;
        inGroups        List<word> 1(processor);
        nFaces          23;
        startFace       58379;
        matchTolerance  0.0001;
        myProcNo        5;
        neighbProcNo    7;
    }
    procBoundary5to8
    {
        type            processor;
        inGroups        List<word> 1(processor);
        nFaces          718;
        startFace       58402;
        matchTolerance  0.0001;
        myProcNo        5;
        neighbProcNo    8;
    }
    procBoundary5to10
    {
        type            processor;
        inGroups        List<word> 1(processor);
        nFaces          8;
        startFace       59120;
        matchTolerance  0.0001;
        myProcNo        5;
        neighbProcNo    10;
    }
    procBoundary5to11
    {
        type            processor;
        inGroups        List<word> 1(processor);
        nFaces          90;
        startFace       59128;
        matchTolerance  0.0001;
        myProcNo        5;
        neighbProcNo    11;
    }
)

// ************************************************************************* //
