/*--------------------------------*- C++ -*----------------------------------*\
| =========                 |                                                 |
| \\      /  F ield         | OpenFOAM: The Open Source CFD Toolbox           |
|  \\    /   O peration     | Version:  2412                                  |
|   \\  /    A nd           | Website:  www.openfoam.com                      |
|    \\/     M anipulation  |                                                 |
\*---------------------------------------------------------------------------*/
FoamFile
{
    version     2.0;
    format      binary;
    arch        "LSB;label=32;scalar=64";
    class       polyBoundaryMesh;
    location    "constant/polyMesh";
    object      boundary;
}
// * * * * * * * * * * * * * * * * * * * * * * * * * * * * * * * * * * * * * //

8
(
    frontAndBack
    {
        type            patch;
        nFaces          56;
        startFace       523;
    }
    inlet
    {
        type            patch;
        nFaces          28;
        startFace       579;
    }
    outlet
    {
        type            patch;
        nFaces          0;
        startFace       607;
    }
    lowerWall
    {
        type            wall;
        inGroups        1(wall);
        nFaces          28;
        startFace       607;
    }
    upperWall
    {
        type            patch;
        nFaces          22;
        startFace       635;
    }
    procBoundary0to1
    {
        type            processor;
        inGroups        1(processor);
        nFaces          37;
        startFace       657;
        matchTolerance  0.0001;
        transform       unknown;
        myProcNo        0;
        neighbProcNo    1;
    }
    procBoundary0to3
    {
        type            processor;
        inGroups        1(processor);
        nFaces          60;
        startFace       694;
        matchTolerance  0.0001;
        transform       unknown;
        myProcNo        0;
        neighbProcNo    3;
    }
    procBoundary0to4
    {
        type            processor;
        inGroups        1(processor);
        nFaces          1;
        startFace       754;
        matchTolerance  0.0001;
        transform       unknown;
        myProcNo        0;
        neighbProcNo    4;
    }
)

// ************************************************************************* //
