/*--------------------------------*- C++ -*----------------------------------*\
  =========                 |
  \\      /  F ield         | OpenFOAM: The Open Source CFD Toolbox
   \\    /   O peration     | Website:  https://openfoam.org
    \\  /    A nd           | Version:  12
     \\/     M anipulation  |
\*---------------------------------------------------------------------------*/
FoamFile
{
    format      ascii;
    class       polyBoundaryMesh;
    location    "constant/fluid/polyMesh";
    object      boundary;
}
// * * * * * * * * * * * * * * * * * * * * * * * * * * * * * * * * * * * * * //

9
(
    inlet
    {
        type            patch;
        nFaces          0;
        startFace       54442;
    }
    outlet
    {
        type            patch;
        nFaces          0;
        startFace       54442;
    }
    walls
    {
        type            wall;
        inGroups        List<word> 1(wall);
        nFaces          1506;
        startFace       54442;
    }
    procBoundary6to0
    {
        type            processor;
        inGroups        List<word> 1(processor);
        nFaces          132;
        startFace       55948;
        matchTolerance  0.0001;
        myProcNo        6;
        neighbProcNo    0;
    }
    procBoundary6to2
    {
        type            processor;
        inGroups        List<word> 1(processor);
        nFaces          505;
        startFace       56080;
        matchTolerance  0.0001;
        myProcNo        6;
        neighbProcNo    2;
    }
    procBoundary6to3
    {
        type            processor;
        inGroups        List<word> 1(processor);
        nFaces          296;
        startFace       56585;
        matchTolerance  0.0001;
        myProcNo        6;
        neighbProcNo    3;
    }
    procBoundary6to5
    {
        type            processor;
        inGroups        List<word> 1(processor);
        nFaces          510;
        startFace       56881;
        matchTolerance  0.0001;
        myProcNo        6;
        neighbProcNo    5;
    }
    procBoundary6to7
    {
        type            processor;
        inGroups        List<word> 1(processor);
        nFaces          1165;
        startFace       57391;
        matchTolerance  0.0001;
        myProcNo        6;
        neighbProcNo    7;
    }
    procBoundary6to8
    {
        type            processor;
        inGroups        List<word> 1(processor);
        nFaces          257;
        startFace       58556;
        matchTolerance  0.0001;
        myProcNo        6;
        neighbProcNo    8;
    }
)

// ************************************************************************* //
