/*--------------------------------*- C++ -*----------------------------------*\
  =========                 |
  \\      /  F ield         | OpenFOAM: The Open Source CFD Toolbox
   \\    /   O peration     | Website:  https://openfoam.org
    \\  /    A nd           | Version:  12
     \\/     M anipulation  |
\*---------------------------------------------------------------------------*/
FoamFile
{
    format      ascii;
    class       polyBoundaryMesh;
    location    "constant/SCR1/polyMesh";
    object      boundary;
}
// * * * * * * * * * * * * * * * * * * * * * * * * * * * * * * * * * * * * * //

6
(
    walls
    {
        type            wall;
        inGroups        List<word> 1(wall);
        nFaces          377;
        startFace       4056;
    }
    procBoundary6to0
    {
        type            processor;
        inGroups        List<word> 1(processor);
        nFaces          4;
        startFace       4433;
        matchTolerance  0.0001;
        myProcNo        6;
        neighbProcNo    0;
    }
    procBoundary6to2
    {
        type            processor;
        inGroups        List<word> 1(processor);
        nFaces          72;
        startFace       4437;
        matchTolerance  0.0001;
        myProcNo        6;
        neighbProcNo    2;
    }
    procBoundary6to4
    {
        type            processor;
        inGroups        List<word> 1(processor);
        nFaces          115;
        startFace       4509;
        matchTolerance  0.0001;
        myProcNo        6;
        neighbProcNo    4;
    }
    procBoundary6to5
    {
        type            processor;
        inGroups        List<word> 1(processor);
        nFaces          116;
        startFace       4624;
        matchTolerance  0.0001;
        myProcNo        6;
        neighbProcNo    5;
    }
    procBoundary6to7
    {
        type            processor;
        inGroups        List<word> 1(processor);
        nFaces          216;
        startFace       4740;
        matchTolerance  0.0001;
        myProcNo        6;
        neighbProcNo    7;
    }
)

// ************************************************************************* //
