/*--------------------------------*- C++ -*----------------------------------*\
  =========                 |
  \\      /  F ield         | OpenFOAM: The Open Source CFD Toolbox
   \\    /   O peration     | Website:  https://openfoam.org
    \\  /    A nd           | Version:  12
     \\/     M anipulation  |
\*---------------------------------------------------------------------------*/
FoamFile
{
    format      ascii;
    class       polyBoundaryMesh;
    location    "constant/SCR1/polyMesh";
    object      boundary;
}
// * * * * * * * * * * * * * * * * * * * * * * * * * * * * * * * * * * * * * //

4
(
    walls
    {
        type            wall;
        inGroups        List<word> 1(wall);
        nFaces          393;
        startFace       4093;
    }
    procBoundary1to0
    {
        type            processor;
        inGroups        List<word> 1(processor);
        nFaces          147;
        startFace       4486;
        matchTolerance  0.0001;
        myProcNo        1;
        neighbProcNo    0;
    }
    procBoundary1to3
    {
        type            processor;
        inGroups        List<word> 1(processor);
        nFaces          108;
        startFace       4633;
        matchTolerance  0.0001;
        myProcNo        1;
        neighbProcNo    3;
    }
    procBoundary1to9
    {
        type            processor;
        inGroups        List<word> 1(processor);
        nFaces          130;
        startFace       4741;
        matchTolerance  0.0001;
        myProcNo        1;
        neighbProcNo    9;
    }
)

// ************************************************************************* //
