/*--------------------------------*- C++ -*----------------------------------*\
  =========                 |
  \\      /  F ield         | OpenFOAM: The Open Source CFD Toolbox
   \\    /   O peration     | Website:  https://openfoam.org
    \\  /    A nd           | Version:  12
     \\/     M anipulation  |
\*---------------------------------------------------------------------------*/
FoamFile
{
    format      ascii;
    class       polyBoundaryMesh;
    location    "constant/SCR2/polyMesh";
    object      boundary;
}
// * * * * * * * * * * * * * * * * * * * * * * * * * * * * * * * * * * * * * //

8
(
    walls
    {
        type            wall;
        inGroups        List<word> 1(wall);
        nFaces          0;
        startFace       4134;
    }
    SCR2_to_region1
    {
        type            mappedWall;
        inGroups        List<word> 
2
(
wall
mapped
)
;
        nFaces          132;
        startFace       4134;
        neighbourRegion region1;
        neighbourPatch  region1_to_SCR2;
        transformType   none;
    }
    SCR2_to_region2
    {
        type            mappedWall;
        inGroups        List<word> 
2
(
wall
mapped
)
;
        nFaces          120;
        startFace       4266;
        neighbourRegion region2;
        neighbourPatch  region2_to_SCR2;
        transformType   none;
    }
    procBoundary5to0
    {
        type            processor;
        inGroups        List<word> 1(processor);
        nFaces          144;
        startFace       4386;
        matchTolerance  0.0001;
        myProcNo        5;
        neighbProcNo    0;
    }
    procBoundary5to4
    {
        type            processor;
        inGroups        List<word> 1(processor);
        nFaces          156;
        startFace       4530;
        matchTolerance  0.0001;
        myProcNo        5;
        neighbProcNo    4;
    }
    procBoundary5to6
    {
        type            processor;
        inGroups        List<word> 1(processor);
        nFaces          126;
        startFace       4686;
        matchTolerance  0.0001;
        myProcNo        5;
        neighbProcNo    6;
    }
    procBoundary5to12
    {
        type            processor;
        inGroups        List<word> 1(processor);
        nFaces          120;
        startFace       4812;
        matchTolerance  0.0001;
        myProcNo        5;
        neighbProcNo    12;
    }
    procBoundary5to13
    {
        type            processor;
        inGroups        List<word> 1(processor);
        nFaces          6;
        startFace       4932;
        matchTolerance  0.0001;
        myProcNo        5;
        neighbProcNo    13;
    }
)

// ************************************************************************* //
