/*--------------------------------*- C++ -*----------------------------------*\
  =========                 |
  \\      /  F ield         | OpenFOAM: The Open Source CFD Toolbox
   \\    /   O peration     | Website:  https://openfoam.org
    \\  /    A nd           | Version:  12
     \\/     M anipulation  |
\*---------------------------------------------------------------------------*/
FoamFile
{
    format      ascii;
    class       polyBoundaryMesh;
    location    "constant/SCR1/polyMesh";
    object      boundary;
}
// * * * * * * * * * * * * * * * * * * * * * * * * * * * * * * * * * * * * * //

3
(
    walls
    {
        type            wall;
        inGroups        List<word> 1(wall);
        nFaces          418;
        startFace       4063;
    }
    procBoundary7to2
    {
        type            processor;
        inGroups        List<word> 1(processor);
        nFaces          144;
        startFace       4481;
        matchTolerance  0.0001;
        myProcNo        7;
        neighbProcNo    2;
    }
    procBoundary7to6
    {
        type            processor;
        inGroups        List<word> 1(processor);
        nFaces          216;
        startFace       4625;
        matchTolerance  0.0001;
        myProcNo        7;
        neighbProcNo    6;
    }
)

// ************************************************************************* //
