/*--------------------------------*- C++ -*----------------------------------*\
  =========                 |
  \\      /  F ield         | OpenFOAM: The Open Source CFD Toolbox
   \\    /   O peration     | Website:  https://openfoam.org
    \\  /    A nd           | Version:  12
     \\/     M anipulation  |
\*---------------------------------------------------------------------------*/
FoamFile
{
    format      ascii;
    class       polyBoundaryMesh;
    location    "constant/fluid/polyMesh";
    object      boundary;
}
// * * * * * * * * * * * * * * * * * * * * * * * * * * * * * * * * * * * * * //

11
(
    inlet
    {
        type            patch;
        nFaces          0;
        startFace       55015;
    }
    outlet
    {
        type            patch;
        nFaces          0;
        startFace       55015;
    }
    walls
    {
        type            wall;
        inGroups        List<word> 1(wall);
        nFaces          1134;
        startFace       55015;
    }
    procBoundary0to1
    {
        type            processor;
        inGroups        List<word> 1(processor);
        nFaces          1252;
        startFace       56149;
        matchTolerance  0.0001;
        myProcNo        0;
        neighbProcNo    1;
    }
    procBoundary0to2
    {
        type            processor;
        inGroups        List<word> 1(processor);
        nFaces          542;
        startFace       57401;
        matchTolerance  0.0001;
        myProcNo        0;
        neighbProcNo    2;
    }
    procBoundary0to5
    {
        type            processor;
        inGroups        List<word> 1(processor);
        nFaces          861;
        startFace       57943;
        matchTolerance  0.0001;
        myProcNo        0;
        neighbProcNo    5;
    }
    procBoundary0to6
    {
        type            processor;
        inGroups        List<word> 1(processor);
        nFaces          132;
        startFace       58804;
        matchTolerance  0.0001;
        myProcNo        0;
        neighbProcNo    6;
    }
    procBoundary0to7
    {
        type            processor;
        inGroups        List<word> 1(processor);
        nFaces          16;
        startFace       58936;
        matchTolerance  0.0001;
        myProcNo        0;
        neighbProcNo    7;
    }
    procBoundary0to11
    {
        type            processor;
        inGroups        List<word> 1(processor);
        nFaces          343;
        startFace       58952;
        matchTolerance  0.0001;
        myProcNo        0;
        neighbProcNo    11;
    }
    procBoundary0to12
    {
        type            processor;
        inGroups        List<word> 1(processor);
        nFaces          196;
        startFace       59295;
        matchTolerance  0.0001;
        myProcNo        0;
        neighbProcNo    12;
    }
    procBoundary0to13
    {
        type            processor;
        inGroups        List<word> 1(processor);
        nFaces          77;
        startFace       59491;
        matchTolerance  0.0001;
        myProcNo        0;
        neighbProcNo    13;
    }
)

// ************************************************************************* //
