/*--------------------------------*- C++ -*----------------------------------*\
  =========                 |
  \\      /  F ield         | OpenFOAM: The Open Source CFD Toolbox
   \\    /   O peration     | Website:  https://openfoam.org
    \\  /    A nd           | Version:  12
     \\/     M anipulation  |
\*---------------------------------------------------------------------------*/
FoamFile
{
    format      ascii;
    class       polyBoundaryMesh;
    location    "constant/SCR2/polyMesh";
    object      boundary;
}
// * * * * * * * * * * * * * * * * * * * * * * * * * * * * * * * * * * * * * //

5
(
    walls
    {
        type            wall;
        inGroups        List<word> 1(wall);
        nFaces          208;
        startFace       4028;
    }
    SCR2_to_region1
    {
        type            mappedWall;
        inGroups        List<word> 
2
(
wall
mapped
)
;
        nFaces          132;
        startFace       4236;
        neighbourRegion region1;
        neighbourPatch  region1_to_SCR2;
        transformType   none;
    }
    SCR2_to_region2
    {
        type            mappedWall;
        inGroups        List<word> 
2
(
wall
mapped
)
;
        nFaces          121;
        startFace       4368;
        neighbourRegion region2;
        neighbourPatch  region2_to_SCR2;
        transformType   none;
    }
    procBoundary3to2
    {
        type            processor;
        inGroups        List<word> 1(processor);
        nFaces          196;
        startFace       4489;
        matchTolerance  0.0001;
        myProcNo        3;
        neighbProcNo    2;
    }
    procBoundary3to7
    {
        type            processor;
        inGroups        List<word> 1(processor);
        nFaces          143;
        startFace       4685;
        matchTolerance  0.0001;
        myProcNo        3;
        neighbProcNo    7;
    }
)

// ************************************************************************* //
