/*--------------------------------*- C++ -*----------------------------------*\
  =========                 |
  \\      /  F ield         | OpenFOAM: The Open Source CFD Toolbox
   \\    /   O peration     | Website:  https://openfoam.org
    \\  /    A nd           | Version:  12
     \\/     M anipulation  |
\*---------------------------------------------------------------------------*/
FoamFile
{
    format      ascii;
    class       polyBoundaryMesh;
    location    "constant/SCR2/polyMesh";
    object      boundary;
}
// * * * * * * * * * * * * * * * * * * * * * * * * * * * * * * * * * * * * * //

5
(
    walls
    {
        type            wall;
        inGroups        List<word> 1(wall);
        nFaces          192;
        startFace       4042;
    }
    SCR2_to_region1
    {
        type            mappedWall;
        inGroups        List<word> 
2
(
wall
mapped
)
;
        nFaces          125;
        startFace       4234;
        neighbourRegion region1;
        neighbourPatch  region1_to_SCR2;
        transformType   none;
    }
    SCR2_to_region2
    {
        type            mappedWall;
        inGroups        List<word> 
2
(
wall
mapped
)
;
        nFaces          124;
        startFace       4359;
        neighbourRegion region2;
        neighbourPatch  region2_to_SCR2;
        transformType   none;
    }
    procBoundary9to8
    {
        type            processor;
        inGroups        List<word> 1(processor);
        nFaces          193;
        startFace       4483;
        matchTolerance  0.0001;
        myProcNo        9;
        neighbProcNo    8;
    }
    procBoundary9to14
    {
        type            processor;
        inGroups        List<word> 1(processor);
        nFaces          132;
        startFace       4676;
        matchTolerance  0.0001;
        myProcNo        9;
        neighbProcNo    14;
    }
)

// ************************************************************************* //
