/*--------------------------------*- C++ -*----------------------------------*\
| =========                 |                                                 |
| \\      /  F ield         | OpenFOAM: The Open Source CFD Toolbox           |
|  \\    /   O peration     | Version:  2412                                  |
|   \\  /    A nd           | Website:  www.openfoam.com                      |
|    \\/     M anipulation  |                                                 |
\*---------------------------------------------------------------------------*/
FoamFile
{
    version     2.0;
    format      binary;
    arch        "LSB;label=32;scalar=64";
    class       polyBoundaryMesh;
    location    "constant/polyMesh";
    object      boundary;
}
// * * * * * * * * * * * * * * * * * * * * * * * * * * * * * * * * * * * * * //

7
(
    frontAndBack
    {
        type            patch;
        nFaces          50;
        startFace       519;
    }
    inlet
    {
        type            patch;
        nFaces          36;
        startFace       569;
    }
    outlet
    {
        type            patch;
        nFaces          0;
        startFace       605;
    }
    lowerWall
    {
        type            wall;
        inGroups        1(wall);
        nFaces          28;
        startFace       605;
    }
    upperWall
    {
        type            patch;
        nFaces          27;
        startFace       633;
    }
    procBoundary3to0
    {
        type            processor;
        inGroups        1(processor);
        nFaces          60;
        startFace       660;
        matchTolerance  0.0001;
        transform       unknown;
        myProcNo        3;
        neighbProcNo    0;
    }
    procBoundary3to4
    {
        type            processor;
        inGroups        1(processor);
        nFaces          39;
        startFace       720;
        matchTolerance  0.0001;
        transform       unknown;
        myProcNo        3;
        neighbProcNo    4;
    }
)

// ************************************************************************* //
