/*--------------------------------*- C++ -*----------------------------------*\
  =========                 |
  \\      /  F ield         | OpenFOAM: The Open Source CFD Toolbox
   \\    /   O peration     | Website:  https://openfoam.org
    \\  /    A nd           | Version:  12
     \\/     M anipulation  |
\*---------------------------------------------------------------------------*/
FoamFile
{
    format      ascii;
    class       polyBoundaryMesh;
    location    "constant/fluid/polyMesh";
    object      boundary;
}
// * * * * * * * * * * * * * * * * * * * * * * * * * * * * * * * * * * * * * //

9
(
    inlet
    {
        type            patch;
        nFaces          0;
        startFace       55245;
    }
    outlet
    {
        type            patch;
        nFaces          0;
        startFace       55245;
    }
    walls
    {
        type            wall;
        inGroups        List<word> 1(wall);
        nFaces          1265;
        startFace       55245;
    }
    procBoundary2to0
    {
        type            processor;
        inGroups        List<word> 1(processor);
        nFaces          542;
        startFace       56510;
        matchTolerance  0.0001;
        myProcNo        2;
        neighbProcNo    0;
    }
    procBoundary2to1
    {
        type            processor;
        inGroups        List<word> 1(processor);
        nFaces          413;
        startFace       57052;
        matchTolerance  0.0001;
        myProcNo        2;
        neighbProcNo    1;
    }
    procBoundary2to3
    {
        type            processor;
        inGroups        List<word> 1(processor);
        nFaces          918;
        startFace       57465;
        matchTolerance  0.0001;
        myProcNo        2;
        neighbProcNo    3;
    }
    procBoundary2to6
    {
        type            processor;
        inGroups        List<word> 1(processor);
        nFaces          505;
        startFace       58383;
        matchTolerance  0.0001;
        myProcNo        2;
        neighbProcNo    6;
    }
    procBoundary2to7
    {
        type            processor;
        inGroups        List<word> 1(processor);
        nFaces          493;
        startFace       58888;
        matchTolerance  0.0001;
        myProcNo        2;
        neighbProcNo    7;
    }
    procBoundary2to13
    {
        type            processor;
        inGroups        List<word> 1(processor);
        nFaces          168;
        startFace       59381;
        matchTolerance  0.0001;
        myProcNo        2;
        neighbProcNo    13;
    }
)

// ************************************************************************* //
