/*--------------------------------*- C++ -*----------------------------------*\
| =========                 |                                                 |
| \\      /  F ield         | OpenFOAM: The Open Source CFD Toolbox           |
|  \\    /   O peration     | Website:  www.openfoam.org                      |
|   \\  /    A nd           | Version:  12                                    |
|    \\/     M anipulation  |                                                 |
\*---------------------------------------------------------------------------*/
FoamFile
{
    version     2.0;
    format      ascii;
    class       dictionary;
    location    "system";
    object      controlDict;
}
// * * * * * * * * * * * * * * * * * * * * * * * * * * * * * * * * * * * * * //

application     foamMultiRun;

regionSolvers
{
    SCR1          solid;
    SCR2          solid;
    fluid         fluid;
}

startFrom       startTime;

startTime       0;

stopAt          endTime;

endTime         5;

deltaT          1e-6;

writeControl    adjustableRunTime;

writeInterval   0.01;

purgeWrite      0;

writeFormat     ascii;

writePrecision  8;

writeCompression on;

timeFormat      general;

timePrecision   6;

runTimeModifiable yes;

maxCo           40;

maxDi           20.0;

maxDeltaT       0.2;

adjustTimeStep  yes;

functions
{
    #includeFunc    residuals
}

// ************************************************************************* //
