/*--------------------------------*- C++ -*----------------------------------*\
  =========                 |
  \\      /  F ield         | OpenFOAM: The Open Source CFD Toolbox
   \\    /   O peration     | Website:  https://openfoam.org
    \\  /    A nd           | Version:  12
     \\/     M anipulation  |
\*---------------------------------------------------------------------------*/
FoamFile
{
    format      ascii;
    class       polyBoundaryMesh;
    location    "constant/fluid/polyMesh";
    object      boundary;
}
// * * * * * * * * * * * * * * * * * * * * * * * * * * * * * * * * * * * * * //

8
(
    inlet
    {
        type            patch;
        nFaces          0;
        startFace       54743;
    }
    outlet
    {
        type            patch;
        nFaces          0;
        startFace       54743;
    }
    walls
    {
        type            wall;
        inGroups        List<word> 1(wall);
        nFaces          1071;
        startFace       54743;
    }
    procBoundary4to1
    {
        type            processor;
        inGroups        List<word> 1(processor);
        nFaces          711;
        startFace       55814;
        matchTolerance  0.0001;
        myProcNo        4;
        neighbProcNo    1;
    }
    procBoundary4to5
    {
        type            processor;
        inGroups        List<word> 1(processor);
        nFaces          1116;
        startFace       56525;
        matchTolerance  0.0001;
        myProcNo        4;
        neighbProcNo    5;
    }
    procBoundary4to7
    {
        type            processor;
        inGroups        List<word> 1(processor);
        nFaces          547;
        startFace       57641;
        matchTolerance  0.0001;
        myProcNo        4;
        neighbProcNo    7;
    }
    procBoundary4to8
    {
        type            processor;
        inGroups        List<word> 1(processor);
        nFaces          810;
        startFace       58188;
        matchTolerance  0.0001;
        myProcNo        4;
        neighbProcNo    8;
    }
    procBoundary4to10
    {
        type            processor;
        inGroups        List<word> 1(processor);
        nFaces          80;
        startFace       58998;
        matchTolerance  0.0001;
        myProcNo        4;
        neighbProcNo    10;
    }
)

// ************************************************************************* //
