/*--------------------------------*- C++ -*----------------------------------*\
  =========                 |
  \\      /  F ield         | OpenFOAM: The Open Source CFD Toolbox
   \\    /   O peration     | Website:  https://openfoam.org
    \\  /    A nd           | Version:  12
     \\/     M anipulation  |
\*---------------------------------------------------------------------------*/
FoamFile
{
    format      ascii;
    class       polyBoundaryMesh;
    location    "constant/fluid/polyMesh";
    object      boundary;
}
// * * * * * * * * * * * * * * * * * * * * * * * * * * * * * * * * * * * * * //

13
(
    inlet
    {
        type            patch;
        nFaces          0;
        startFace       55217;
    }
    outlet
    {
        type            patch;
        nFaces          0;
        startFace       55217;
    }
    walls
    {
        type            wall;
        inGroups        List<word> 1(wall);
        nFaces          1002;
        startFace       55217;
    }
    procBoundary10to1
    {
        type            processor;
        inGroups        List<word> 1(processor);
        nFaces          393;
        startFace       56219;
        matchTolerance  0.0001;
        myProcNo        10;
        neighbProcNo    1;
    }
    procBoundary10to4
    {
        type            processor;
        inGroups        List<word> 1(processor);
        nFaces          80;
        startFace       56612;
        matchTolerance  0.0001;
        myProcNo        10;
        neighbProcNo    4;
    }
    procBoundary10to5
    {
        type            processor;
        inGroups        List<word> 1(processor);
        nFaces          8;
        startFace       56692;
        matchTolerance  0.0001;
        myProcNo        10;
        neighbProcNo    5;
    }
    procBoundary10to8
    {
        type            processor;
        inGroups        List<word> 1(processor);
        nFaces          423;
        startFace       56700;
        matchTolerance  0.0001;
        myProcNo        10;
        neighbProcNo    8;
    }
    procBoundary10to9
    {
        type            processor;
        inGroups        List<word> 1(processor);
        nFaces          459;
        startFace       57123;
        matchTolerance  0.0001;
        myProcNo        10;
        neighbProcNo    9;
    }
    procBoundary10to11
    {
        type            processor;
        inGroups        List<word> 1(processor);
        nFaces          1052;
        startFace       57582;
        matchTolerance  0.0001;
        myProcNo        10;
        neighbProcNo    11;
    }
    procBoundary10to12
    {
        type            processor;
        inGroups        List<word> 1(processor);
        nFaces          150;
        startFace       58634;
        matchTolerance  0.0001;
        myProcNo        10;
        neighbProcNo    12;
    }
    procBoundary10to13
    {
        type            processor;
        inGroups        List<word> 1(processor);
        nFaces          571;
        startFace       58784;
        matchTolerance  0.0001;
        myProcNo        10;
        neighbProcNo    13;
    }
    procBoundary10to14
    {
        type            processor;
        inGroups        List<word> 1(processor);
        nFaces          295;
        startFace       59355;
        matchTolerance  0.0001;
        myProcNo        10;
        neighbProcNo    14;
    }
    procBoundary10to15
    {
        type            processor;
        inGroups        List<word> 1(processor);
        nFaces          22;
        startFace       59650;
        matchTolerance  0.0001;
        myProcNo        10;
        neighbProcNo    15;
    }
)

// ************************************************************************* //
