/*--------------------------------*- C++ -*----------------------------------*\
  =========                 |
  \\      /  F ield         | OpenFOAM: The Open Source CFD Toolbox
   \\    /   O peration     | Website:  https://openfoam.org
    \\  /    A nd           | Version:  12
     \\/     M anipulation  |
\*---------------------------------------------------------------------------*/
FoamFile
{
    format      ascii;
    class       polyBoundaryMesh;
    location    "constant/fluid/polyMesh";
    object      boundary;
}
// * * * * * * * * * * * * * * * * * * * * * * * * * * * * * * * * * * * * * //

10
(
    inlet
    {
        type            patch;
        nFaces          0;
        startFace       53887;
    }
    outlet
    {
        type            patch;
        nFaces          0;
        startFace       53887;
    }
    walls
    {
        type            wall;
        inGroups        List<word> 1(wall);
        nFaces          2408;
        startFace       53887;
    }
    procBoundary8to4
    {
        type            processor;
        inGroups        List<word> 1(processor);
        nFaces          810;
        startFace       56295;
        matchTolerance  0.0001;
        myProcNo        8;
        neighbProcNo    4;
    }
    procBoundary8to5
    {
        type            processor;
        inGroups        List<word> 1(processor);
        nFaces          718;
        startFace       57105;
        matchTolerance  0.0001;
        myProcNo        8;
        neighbProcNo    5;
    }
    procBoundary8to6
    {
        type            processor;
        inGroups        List<word> 1(processor);
        nFaces          257;
        startFace       57823;
        matchTolerance  0.0001;
        myProcNo        8;
        neighbProcNo    6;
    }
    procBoundary8to7
    {
        type            processor;
        inGroups        List<word> 1(processor);
        nFaces          277;
        startFace       58080;
        matchTolerance  0.0001;
        myProcNo        8;
        neighbProcNo    7;
    }
    procBoundary8to9
    {
        type            processor;
        inGroups        List<word> 1(processor);
        nFaces          926;
        startFace       58357;
        matchTolerance  0.0001;
        myProcNo        8;
        neighbProcNo    9;
    }
    procBoundary8to10
    {
        type            processor;
        inGroups        List<word> 1(processor);
        nFaces          423;
        startFace       59283;
        matchTolerance  0.0001;
        myProcNo        8;
        neighbProcNo    10;
    }
    procBoundary8to11
    {
        type            processor;
        inGroups        List<word> 1(processor);
        nFaces          360;
        startFace       59706;
        matchTolerance  0.0001;
        myProcNo        8;
        neighbProcNo    11;
    }
)

// ************************************************************************* //
