/*--------------------------------*- C++ -*----------------------------------*\
  =========                 |
  \\      /  F ield         | OpenFOAM: The Open Source CFD Toolbox
   \\    /   O peration     | Website:  https://openfoam.org
    \\  /    A nd           | Version:  12
     \\/     M anipulation  |
\*---------------------------------------------------------------------------*/
FoamFile
{
    format      ascii;
    class       polyBoundaryMesh;
    location    "constant/SCR1/polyMesh";
    object      boundary;
}
// * * * * * * * * * * * * * * * * * * * * * * * * * * * * * * * * * * * * * //

4
(
    walls
    {
        type            wall;
        inGroups        List<word> 1(wall);
        nFaces          454;
        startFace       4039;
    }
    procBoundary11to8
    {
        type            processor;
        inGroups        List<word> 1(processor);
        nFaces          45;
        startFace       4493;
        matchTolerance  0.0001;
        myProcNo        11;
        neighbProcNo    8;
    }
    procBoundary11to9
    {
        type            processor;
        inGroups        List<word> 1(processor);
        nFaces          111;
        startFace       4538;
        matchTolerance  0.0001;
        myProcNo        11;
        neighbProcNo    9;
    }
    procBoundary11to10
    {
        type            processor;
        inGroups        List<word> 1(processor);
        nFaces          192;
        startFace       4649;
        matchTolerance  0.0001;
        myProcNo        11;
        neighbProcNo    10;
    }
)

// ************************************************************************* //
