/*--------------------------------*- C++ -*----------------------------------*\
  =========                 |
  \\      /  F ield         | OpenFOAM: The Open Source CFD Toolbox
   \\    /   O peration     | Website:  https://openfoam.org
    \\  /    A nd           | Version:  12
     \\/     M anipulation  |
\*---------------------------------------------------------------------------*/
FoamFile
{
    format      ascii;
    class       polyBoundaryMesh;
    location    "constant/SCR2/polyMesh";
    object      boundary;
}
// * * * * * * * * * * * * * * * * * * * * * * * * * * * * * * * * * * * * * //

8
(
    walls
    {
        type            wall;
        inGroups        List<word> 1(wall);
        nFaces          60;
        startFace       4085;
    }
    SCR2_to_region1
    {
        type            mappedWall;
        inGroups        List<word> 
2
(
wall
mapped
)
;
        nFaces          123;
        startFace       4145;
        neighbourRegion region1;
        neighbourPatch  region1_to_SCR2;
        transformType   none;
    }
    SCR2_to_region2
    {
        type            mappedWall;
        inGroups        List<word> 
2
(
wall
mapped
)
;
        nFaces          127;
        startFace       4268;
        neighbourRegion region2;
        neighbourPatch  region2_to_SCR2;
        transformType   none;
    }
    procBoundary6to0
    {
        type            processor;
        inGroups        List<word> 1(processor);
        nFaces          12;
        startFace       4395;
        matchTolerance  0.0001;
        myProcNo        6;
        neighbProcNo    0;
    }
    procBoundary6to2
    {
        type            processor;
        inGroups        List<word> 1(processor);
        nFaces          92;
        startFace       4407;
        matchTolerance  0.0001;
        myProcNo        6;
        neighbProcNo    2;
    }
    procBoundary6to4
    {
        type            processor;
        inGroups        List<word> 1(processor);
        nFaces          114;
        startFace       4499;
        matchTolerance  0.0001;
        myProcNo        6;
        neighbProcNo    4;
    }
    procBoundary6to5
    {
        type            processor;
        inGroups        List<word> 1(processor);
        nFaces          126;
        startFace       4613;
        matchTolerance  0.0001;
        myProcNo        6;
        neighbProcNo    5;
    }
    procBoundary6to7
    {
        type            processor;
        inGroups        List<word> 1(processor);
        nFaces          200;
        startFace       4739;
        matchTolerance  0.0001;
        myProcNo        6;
        neighbProcNo    7;
    }
)

// ************************************************************************* //
