/*--------------------------------*- C++ -*----------------------------------*\
  =========                 |
  \\      /  F ield         | OpenFOAM: The Open Source CFD Toolbox
   \\    /   O peration     | Website:  https://openfoam.org
    \\  /    A nd           | Version:  12
     \\/     M anipulation  |
\*---------------------------------------------------------------------------*/
FoamFile
{
    format      ascii;
    class       polyBoundaryMesh;
    location    "constant/fluid/polyMesh";
    object      boundary;
}
// * * * * * * * * * * * * * * * * * * * * * * * * * * * * * * * * * * * * * //

7
(
    inlet
    {
        type            patch;
        nFaces          0;
        startFace       54935;
    }
    outlet
    {
        type            patch;
        nFaces          304;
        startFace       54935;
    }
    walls
    {
        type            wall;
        inGroups        List<word> 1(wall);
        nFaces          2313;
        startFace       55239;
    }
    procBoundary3to2
    {
        type            processor;
        inGroups        List<word> 1(processor);
        nFaces          918;
        startFace       57552;
        matchTolerance  0.0001;
        myProcNo        3;
        neighbProcNo    2;
    }
    procBoundary3to6
    {
        type            processor;
        inGroups        List<word> 1(processor);
        nFaces          296;
        startFace       58470;
        matchTolerance  0.0001;
        myProcNo        3;
        neighbProcNo    6;
    }
    procBoundary3to7
    {
        type            processor;
        inGroups        List<word> 1(processor);
        nFaces          217;
        startFace       58766;
        matchTolerance  0.0001;
        myProcNo        3;
        neighbProcNo    7;
    }
    procBoundary3to13
    {
        type            processor;
        inGroups        List<word> 1(processor);
        nFaces          38;
        startFace       58983;
        matchTolerance  0.0001;
        myProcNo        3;
        neighbProcNo    13;
    }
)

// ************************************************************************* //
