/*--------------------------------*- C++ -*----------------------------------*\
  =========                 |
  \\      /  F ield         | OpenFOAM: The Open Source CFD Toolbox
   \\    /   O peration     | Website:  https://openfoam.org
    \\  /    A nd           | Version:  12
     \\/     M anipulation  |
\*---------------------------------------------------------------------------*/
FoamFile
{
    format      ascii;
    class       polyBoundaryMesh;
    location    "constant/SCR1/polyMesh";
    object      boundary;
}
// * * * * * * * * * * * * * * * * * * * * * * * * * * * * * * * * * * * * * //

5
(
    walls
    {
        type            wall;
        inGroups        List<word> 1(wall);
        nFaces          394;
        startFace       4080;
    }
    procBoundary14to4
    {
        type            processor;
        inGroups        List<word> 1(processor);
        nFaces          120;
        startFace       4474;
        matchTolerance  0.0001;
        myProcNo        14;
        neighbProcNo    4;
    }
    procBoundary14to5
    {
        type            processor;
        inGroups        List<word> 1(processor);
        nFaces          17;
        startFace       4594;
        matchTolerance  0.0001;
        myProcNo        14;
        neighbProcNo    5;
    }
    procBoundary14to13
    {
        type            processor;
        inGroups        List<word> 1(processor);
        nFaces          108;
        startFace       4611;
        matchTolerance  0.0001;
        myProcNo        14;
        neighbProcNo    13;
    }
    procBoundary14to15
    {
        type            processor;
        inGroups        List<word> 1(processor);
        nFaces          153;
        startFace       4719;
        matchTolerance  0.0001;
        myProcNo        14;
        neighbProcNo    15;
    }
)

// ************************************************************************* //
