/*--------------------------------*- C++ -*----------------------------------*\
  =========                 |
  \\      /  F ield         | OpenFOAM: The Open Source CFD Toolbox
   \\    /   O peration     | Website:  https://openfoam.org
    \\  /    A nd           | Version:  12
     \\/     M anipulation  |
\*---------------------------------------------------------------------------*/
FoamFile
{
    format      ascii;
    class       polyBoundaryMesh;
    location    "constant/fluid/polyMesh";
    object      boundary;
}
// * * * * * * * * * * * * * * * * * * * * * * * * * * * * * * * * * * * * * //

9
(
    inlet
    {
        type            patch;
        nFaces          290;
        startFace       53201;
    }
    outlet
    {
        type            patch;
        nFaces          0;
        startFace       53491;
    }
    walls
    {
        type            wall;
        inGroups        List<word> 1(wall);
        nFaces          3324;
        startFace       53491;
    }
    procBoundary12to0
    {
        type            processor;
        inGroups        List<word> 1(processor);
        nFaces          196;
        startFace       56815;
        matchTolerance  0.0001;
        myProcNo        12;
        neighbProcNo    0;
    }
    procBoundary12to1
    {
        type            processor;
        inGroups        List<word> 1(processor);
        nFaces          196;
        startFace       57011;
        matchTolerance  0.0001;
        myProcNo        12;
        neighbProcNo    1;
    }
    procBoundary12to10
    {
        type            processor;
        inGroups        List<word> 1(processor);
        nFaces          150;
        startFace       57207;
        matchTolerance  0.0001;
        myProcNo        12;
        neighbProcNo    10;
    }
    procBoundary12to11
    {
        type            processor;
        inGroups        List<word> 1(processor);
        nFaces          130;
        startFace       57357;
        matchTolerance  0.0001;
        myProcNo        12;
        neighbProcNo    11;
    }
    procBoundary12to13
    {
        type            processor;
        inGroups        List<word> 1(processor);
        nFaces          182;
        startFace       57487;
        matchTolerance  0.0001;
        myProcNo        12;
        neighbProcNo    13;
    }
    procBoundary12to14
    {
        type            processor;
        inGroups        List<word> 1(processor);
        nFaces          454;
        startFace       57669;
        matchTolerance  0.0001;
        myProcNo        12;
        neighbProcNo    14;
    }
)

// ************************************************************************* //
