/*--------------------------------*- C++ -*----------------------------------*\
  =========                 |
  \\      /  F ield         | OpenFOAM: The Open Source CFD Toolbox
   \\    /   O peration     | Website:  https://openfoam.org
    \\  /    A nd           | Version:  12
     \\/     M anipulation  |
\*---------------------------------------------------------------------------*/
FoamFile
{
    format      ascii;
    class       polyBoundaryMesh;
    location    "constant/SCR1/polyMesh";
    object      boundary;
}
// * * * * * * * * * * * * * * * * * * * * * * * * * * * * * * * * * * * * * //

5
(
    walls
    {
        type            wall;
        inGroups        List<word> 1(wall);
        nFaces          338;
        startFace       4045;
    }
    procBoundary2to0
    {
        type            processor;
        inGroups        List<word> 1(processor);
        nFaces          84;
        startFace       4383;
        matchTolerance  0.0001;
        myProcNo        2;
        neighbProcNo    0;
    }
    procBoundary2to3
    {
        type            processor;
        inGroups        List<word> 1(processor);
        nFaces          200;
        startFace       4467;
        matchTolerance  0.0001;
        myProcNo        2;
        neighbProcNo    3;
    }
    procBoundary2to6
    {
        type            processor;
        inGroups        List<word> 1(processor);
        nFaces          72;
        startFace       4667;
        matchTolerance  0.0001;
        myProcNo        2;
        neighbProcNo    6;
    }
    procBoundary2to7
    {
        type            processor;
        inGroups        List<word> 1(processor);
        nFaces          144;
        startFace       4739;
        matchTolerance  0.0001;
        myProcNo        2;
        neighbProcNo    7;
    }
)

// ************************************************************************* //
