/*--------------------------------*- C++ -*----------------------------------*\
  =========                 |
  \\      /  F ield         | OpenFOAM: The Open Source CFD Toolbox
   \\    /   O peration     | Website:  https://openfoam.org
    \\  /    A nd           | Version:  12
     \\/     M anipulation  |
\*---------------------------------------------------------------------------*/
FoamFile
{
    format      ascii;
    class       polyBoundaryMesh;
    location    "constant/SCR1/polyMesh";
    object      boundary;
}
// * * * * * * * * * * * * * * * * * * * * * * * * * * * * * * * * * * * * * //

5
(
    walls
    {
        type            wall;
        inGroups        List<word> 1(wall);
        nFaces          396;
        startFace       4112;
    }
    procBoundary9to0
    {
        type            processor;
        inGroups        List<word> 1(processor);
        nFaces          2;
        startFace       4508;
        matchTolerance  0.0001;
        myProcNo        9;
        neighbProcNo    0;
    }
    procBoundary9to1
    {
        type            processor;
        inGroups        List<word> 1(processor);
        nFaces          130;
        startFace       4510;
        matchTolerance  0.0001;
        myProcNo        9;
        neighbProcNo    1;
    }
    procBoundary9to8
    {
        type            processor;
        inGroups        List<word> 1(processor);
        nFaces          149;
        startFace       4640;
        matchTolerance  0.0001;
        myProcNo        9;
        neighbProcNo    8;
    }
    procBoundary9to11
    {
        type            processor;
        inGroups        List<word> 1(processor);
        nFaces          111;
        startFace       4789;
        matchTolerance  0.0001;
        myProcNo        9;
        neighbProcNo    11;
    }
)

// ************************************************************************* //
