/*--------------------------------*- C++ -*----------------------------------*\
  =========                 |
  \\      /  F ield         | OpenFOAM: The Open Source CFD Toolbox
   \\    /   O peration     | Website:  https://openfoam.org
    \\  /    A nd           | Version:  12
     \\/     M anipulation  |
\*---------------------------------------------------------------------------*/
FoamFile
{
    format      ascii;
    class       polyBoundaryMesh;
    location    "constant/fluid/polyMesh";
    object      boundary;
}
// * * * * * * * * * * * * * * * * * * * * * * * * * * * * * * * * * * * * * //

11
(
    inlet
    {
        type            patch;
        nFaces          0;
        startFace       54349;
    }
    outlet
    {
        type            patch;
        nFaces          0;
        startFace       54349;
    }
    walls
    {
        type            wall;
        inGroups        List<word> 1(wall);
        nFaces          1423;
        startFace       54349;
    }
    procBoundary7to0
    {
        type            processor;
        inGroups        List<word> 1(processor);
        nFaces          16;
        startFace       55772;
        matchTolerance  0.0001;
        myProcNo        7;
        neighbProcNo    0;
    }
    procBoundary7to1
    {
        type            processor;
        inGroups        List<word> 1(processor);
        nFaces          179;
        startFace       55788;
        matchTolerance  0.0001;
        myProcNo        7;
        neighbProcNo    1;
    }
    procBoundary7to2
    {
        type            processor;
        inGroups        List<word> 1(processor);
        nFaces          493;
        startFace       55967;
        matchTolerance  0.0001;
        myProcNo        7;
        neighbProcNo    2;
    }
    procBoundary7to3
    {
        type            processor;
        inGroups        List<word> 1(processor);
        nFaces          217;
        startFace       56460;
        matchTolerance  0.0001;
        myProcNo        7;
        neighbProcNo    3;
    }
    procBoundary7to4
    {
        type            processor;
        inGroups        List<word> 1(processor);
        nFaces          547;
        startFace       56677;
        matchTolerance  0.0001;
        myProcNo        7;
        neighbProcNo    4;
    }
    procBoundary7to5
    {
        type            processor;
        inGroups        List<word> 1(processor);
        nFaces          23;
        startFace       57224;
        matchTolerance  0.0001;
        myProcNo        7;
        neighbProcNo    5;
    }
    procBoundary7to6
    {
        type            processor;
        inGroups        List<word> 1(processor);
        nFaces          1165;
        startFace       57247;
        matchTolerance  0.0001;
        myProcNo        7;
        neighbProcNo    6;
    }
    procBoundary7to8
    {
        type            processor;
        inGroups        List<word> 1(processor);
        nFaces          277;
        startFace       58412;
        matchTolerance  0.0001;
        myProcNo        7;
        neighbProcNo    8;
    }
)

// ************************************************************************* //
